// Generated for: spectre
// Generated on: Oct 29 23:46:35 2024
// Design library name: lab4_boyz_nnguye24
// Design cell name: sim_mirror_FA
// Design view name: schematic
simulator lang=spectre
global 0 vdd!
