// Generated for: spectre
// Generated on: Oct 16 03:08:10 2024
// Design library name: lab3_boyz_dnoronha
// Design cell name: sim_part2_circuit
// Design view name: schematic
simulator lang=spectre
global 0 vdd!
